*HEADING
Transient sandwich plate, 3-D SOLID benchmark (see README.md)
** 20 x 20 x 12 C3D8I; same BCs/load/time as sandwich_RM
*NODE
1, 0.00000000, 0.00000000, 0.00000000
2, 0.02500000, 0.00000000, 0.00000000
3, 0.05000000, 0.00000000, 0.00000000
4, 0.07500000, 0.00000000, 0.00000000
5, 0.10000000, 0.00000000, 0.00000000
6, 0.12500000, 0.00000000, 0.00000000
7, 0.15000000, 0.00000000, 0.00000000
8, 0.17500000, 0.00000000, 0.00000000
9, 0.20000000, 0.00000000, 0.00000000
10, 0.22500000, 0.00000000, 0.00000000
11, 0.25000000, 0.00000000, 0.00000000
12, 0.27500000, 0.00000000, 0.00000000
13, 0.30000000, 0.00000000, 0.00000000
14, 0.32500000, 0.00000000, 0.00000000
15, 0.35000000, 0.00000000, 0.00000000
16, 0.37500000, 0.00000000, 0.00000000
17, 0.40000000, 0.00000000, 0.00000000
18, 0.42500000, 0.00000000, 0.00000000
19, 0.45000000, 0.00000000, 0.00000000
20, 0.47500000, 0.00000000, 0.00000000
** ... 5713 like lines cut
*ELEMENT, TYPE=C3D8I
1, 1, 2, 23, 22, 442, 443, 464, 463
2, 2, 3, 24, 23, 443, 444, 465, 464
3, 3, 4, 25, 24, 444, 445, 466, 465
4, 4, 5, 26, 25, 445, 446, 467, 466
5, 5, 6, 27, 26, 446, 447, 468, 467
6, 6, 7, 28, 27, 447, 448, 469, 468
7, 7, 8, 29, 28, 448, 449, 470, 469
8, 8, 9, 30, 29, 449, 450, 471, 470
9, 9, 10, 31, 30, 450, 451, 472, 471
10, 10, 11, 32, 31, 451, 452, 473, 472
11, 11, 12, 33, 32, 452, 453, 474, 473
12, 12, 13, 34, 33, 453, 454, 475, 474
13, 13, 14, 35, 34, 454, 455, 476, 475
14, 14, 15, 36, 35, 455, 456, 477, 476
15, 15, 16, 37, 36, 456, 457, 478, 477
16, 16, 17, 38, 37, 457, 458, 479, 478
17, 17, 18, 39, 38, 458, 459, 480, 479
18, 18, 19, 40, 39, 459, 460, 481, 480
19, 19, 20, 41, 40, 460, 461, 482, 481
20, 20, 21, 42, 41, 461, 462, 483, 482
** ... 4780 like lines cut
*ELSET, ELSET=LAY1
1, 2, 3, 4, 5, 6, 7, 8, 9, 10, 11, 12
13, 14, 15, 16, 17, 18, 19, 20, 21, 22, 23, 24
25, 26, 27, 28, 29, 30, 31, 32, 33, 34, 35, 36
37, 38, 39, 40, 41, 42, 43, 44, 45, 46, 47, 48
49, 50, 51, 52, 53, 54, 55, 56, 57, 58, 59, 60
61, 62, 63, 64, 65, 66, 67, 68, 69, 70, 71, 72
73, 74, 75, 76, 77, 78, 79, 80, 81, 82, 83, 84
85, 86, 87, 88, 89, 90, 91, 92, 93, 94, 95, 96
97, 98, 99, 100, 101, 102, 103, 104, 105, 106, 107, 108
109, 110, 111, 112, 113, 114, 115, 116, 117, 118, 119, 120
121, 122, 123, 124, 125, 126, 127, 128, 129, 130, 131, 132
133, 134, 135, 136, 137, 138, 139, 140, 141, 142, 143, 144
145, 146, 147, 148, 149, 150, 151, 152, 153, 154, 155, 156
157, 158, 159, 160, 161, 162, 163, 164, 165, 166, 167, 168
169, 170, 171, 172, 173, 174, 175, 176, 177, 178, 179, 180
181, 182, 183, 184, 185, 186, 187, 188, 189, 190, 191, 192
193, 194, 195, 196, 197, 198, 199, 200, 201, 202, 203, 204
205, 206, 207, 208, 209, 210, 211, 212, 213, 214, 215, 216
217, 218, 219, 220, 221, 222, 223, 224, 225, 226, 227, 228
229, 230, 231, 232, 233, 234, 235, 236, 237, 238, 239, 240
** ... 47 like lines cut
*ELSET, ELSET=LAY2
801, 802, 803, 804, 805, 806, 807, 808, 809, 810, 811, 812
813, 814, 815, 816, 817, 818, 819, 820, 821, 822, 823, 824
825, 826, 827, 828, 829, 830, 831, 832, 833, 834, 835, 836
837, 838, 839, 840, 841, 842, 843, 844, 845, 846, 847, 848
849, 850, 851, 852, 853, 854, 855, 856, 857, 858, 859, 860
861, 862, 863, 864, 865, 866, 867, 868, 869, 870, 871, 872
873, 874, 875, 876, 877, 878, 879, 880, 881, 882, 883, 884
885, 886, 887, 888, 889, 890, 891, 892, 893, 894, 895, 896
897, 898, 899, 900, 901, 902, 903, 904, 905, 906, 907, 908
909, 910, 911, 912, 913, 914, 915, 916, 917, 918, 919, 920
921, 922, 923, 924, 925, 926, 927, 928, 929, 930, 931, 932
933, 934, 935, 936, 937, 938, 939, 940, 941, 942, 943, 944
945, 946, 947, 948, 949, 950, 951, 952, 953, 954, 955, 956
957, 958, 959, 960, 961, 962, 963, 964, 965, 966, 967, 968
969, 970, 971, 972, 973, 974, 975, 976, 977, 978, 979, 980
981, 982, 983, 984, 985, 986, 987, 988, 989, 990, 991, 992
993, 994, 995, 996, 997, 998, 999, 1000, 1001, 1002, 1003, 1004
1005, 1006, 1007, 1008, 1009, 1010, 1011, 1012, 1013, 1014, 1015, 1016
1017, 1018, 1019, 1020, 1021, 1022, 1023, 1024, 1025, 1026, 1027, 1028
1029, 1030, 1031, 1032, 1033, 1034, 1035, 1036, 1037, 1038, 1039, 1040
** ... 247 like lines cut
*ELSET, ELSET=LAY3
4001, 4002, 4003, 4004, 4005, 4006, 4007, 4008, 4009, 4010, 4011, 4012
4013, 4014, 4015, 4016, 4017, 4018, 4019, 4020, 4021, 4022, 4023, 4024
4025, 4026, 4027, 4028, 4029, 4030, 4031, 4032, 4033, 4034, 4035, 4036
4037, 4038, 4039, 4040, 4041, 4042, 4043, 4044, 4045, 4046, 4047, 4048
4049, 4050, 4051, 4052, 4053, 4054, 4055, 4056, 4057, 4058, 4059, 4060
4061, 4062, 4063, 4064, 4065, 4066, 4067, 4068, 4069, 4070, 4071, 4072
4073, 4074, 4075, 4076, 4077, 4078, 4079, 4080, 4081, 4082, 4083, 4084
4085, 4086, 4087, 4088, 4089, 4090, 4091, 4092, 4093, 4094, 4095, 4096
4097, 4098, 4099, 4100, 4101, 4102, 4103, 4104, 4105, 4106, 4107, 4108
4109, 4110, 4111, 4112, 4113, 4114, 4115, 4116, 4117, 4118, 4119, 4120
4121, 4122, 4123, 4124, 4125, 4126, 4127, 4128, 4129, 4130, 4131, 4132
4133, 4134, 4135, 4136, 4137, 4138, 4139, 4140, 4141, 4142, 4143, 4144
4145, 4146, 4147, 4148, 4149, 4150, 4151, 4152, 4153, 4154, 4155, 4156
4157, 4158, 4159, 4160, 4161, 4162, 4163, 4164, 4165, 4166, 4167, 4168
4169, 4170, 4171, 4172, 4173, 4174, 4175, 4176, 4177, 4178, 4179, 4180
4181, 4182, 4183, 4184, 4185, 4186, 4187, 4188, 4189, 4190, 4191, 4192
4193, 4194, 4195, 4196, 4197, 4198, 4199, 4200, 4201, 4202, 4203, 4204
4205, 4206, 4207, 4208, 4209, 4210, 4211, 4212, 4213, 4214, 4215, 4216
4217, 4218, 4219, 4220, 4221, 4222, 4223, 4224, 4225, 4226, 4227, 4228
4229, 4230, 4231, 4232, 4233, 4234, 4235, 4236, 4237, 4238, 4239, 4240
** ... 47 like lines cut
*NSET, NSET=NCEN3D
2867
*ELSET, ELSET=COLC
190, 191, 210, 211, 590, 591, 610, 611, 990, 991, 1010, 1011
1390, 1391, 1410, 1411, 1790, 1791, 1810, 1811, 2190, 2191, 2210, 2211
2590, 2591, 2610, 2611, 2990, 2991, 3010, 3011, 3390, 3391, 3410, 3411
3790, 3791, 3810, 3811, 4190, 4191, 4210, 4211, 4590, 4591, 4610, 4611
*ELSET, ELSET=COLX
181, 201, 581, 601, 981, 1001, 1381, 1401, 1781, 1801, 2181, 2201
2581, 2601, 2981, 3001, 3381, 3401, 3781, 3801, 4181, 4201, 4581, 4601
*ELSET, ELSET=COLY
10, 11, 410, 411, 810, 811, 1210, 1211, 1610, 1611, 2010, 2011
2410, 2411, 2810, 2811, 3210, 3211, 3610, 3611, 4010, 4011, 4410, 4411
*NSET, NSET=NX0F
1, 22, 43, 64, 85, 106, 127, 148, 169, 190, 211, 232
253, 274, 295, 316, 337, 358, 379, 400, 421, 442, 463, 484
505, 526, 547, 568, 589, 610, 631, 652, 673, 694, 715, 736
757, 778, 799, 820, 841, 862, 883, 904, 925, 946, 967, 988
1009, 1030, 1051, 1072, 1093, 1114, 1135, 1156, 1177, 1198, 1219, 1240
1261, 1282, 1303, 1324, 1345, 1366, 1387, 1408, 1429, 1450, 1471, 1492
1513, 1534, 1555, 1576, 1597, 1618, 1639, 1660, 1681, 1702, 1723, 1744
1765, 1786, 1807, 1828, 1849, 1870, 1891, 1912, 1933, 1954, 1975, 1996
2017, 2038, 2059, 2080, 2101, 2122, 2143, 2164, 2185, 2206, 2227, 2248
2269, 2290, 2311, 2332, 2353, 2374, 2395, 2416, 2437, 2458, 2479, 2500
2521, 2542, 2563, 2584, 2605, 2626, 2647, 2668, 2689, 2710, 2731, 2752
2773, 2794, 2815, 2836, 2857, 2878, 2899, 2920, 2941, 2962, 2983, 3004
3025, 3046, 3067, 3088, 3109, 3130, 3151, 3172, 3193, 3214, 3235, 3256
3277, 3298, 3319, 3340, 3361, 3382, 3403, 3424, 3445, 3466, 3487, 3508
3529, 3550, 3571, 3592, 3613, 3634, 3655, 3676, 3697, 3718, 3739, 3760
3781, 3802, 3823, 3844, 3865, 3886, 3907, 3928, 3949, 3970, 3991, 4012
4033, 4054, 4075, 4096, 4117, 4138, 4159, 4180, 4201, 4222, 4243, 4264
4285, 4306, 4327, 4348, 4369, 4390, 4411, 4432, 4453, 4474, 4495, 4516
4537, 4558, 4579, 4600, 4621, 4642, 4663, 4684, 4705, 4726, 4747, 4768
4789, 4810, 4831, 4852, 4873, 4894, 4915, 4936, 4957, 4978, 4999, 5020
5041, 5062, 5083, 5104, 5125, 5146, 5167, 5188, 5209, 5230, 5251, 5272
5293, 5314, 5335, 5356, 5377, 5398, 5419, 5440, 5461, 5482, 5503, 5524
5545, 5566, 5587, 5608, 5629, 5650, 5671, 5692, 5713
*NSET, NSET=NXAF
21, 42, 63, 84, 105, 126, 147, 168, 189, 210, 231, 252
273, 294, 315, 336, 357, 378, 399, 420, 441, 462, 483, 504
525, 546, 567, 588, 609, 630, 651, 672, 693, 714, 735, 756
777, 798, 819, 840, 861, 882, 903, 924, 945, 966, 987, 1008
1029, 1050, 1071, 1092, 1113, 1134, 1155, 1176, 1197, 1218, 1239, 1260
1281, 1302, 1323, 1344, 1365, 1386, 1407, 1428, 1449, 1470, 1491, 1512
1533, 1554, 1575, 1596, 1617, 1638, 1659, 1680, 1701, 1722, 1743, 1764
1785, 1806, 1827, 1848, 1869, 1890, 1911, 1932, 1953, 1974, 1995, 2016
2037, 2058, 2079, 2100, 2121, 2142, 2163, 2184, 2205, 2226, 2247, 2268
2289, 2310, 2331, 2352, 2373, 2394, 2415, 2436, 2457, 2478, 2499, 2520
2541, 2562, 2583, 2604, 2625, 2646, 2667, 2688, 2709, 2730, 2751, 2772
2793, 2814, 2835, 2856, 2877, 2898, 2919, 2940, 2961, 2982, 3003, 3024
3045, 3066, 3087, 3108, 3129, 3150, 3171, 3192, 3213, 3234, 3255, 3276
3297, 3318, 3339, 3360, 3381, 3402, 3423, 3444, 3465, 3486, 3507, 3528
3549, 3570, 3591, 3612, 3633, 3654, 3675, 3696, 3717, 3738, 3759, 3780
3801, 3822, 3843, 3864, 3885, 3906, 3927, 3948, 3969, 3990, 4011, 4032
4053, 4074, 4095, 4116, 4137, 4158, 4179, 4200, 4221, 4242, 4263, 4284
4305, 4326, 4347, 4368, 4389, 4410, 4431, 4452, 4473, 4494, 4515, 4536
4557, 4578, 4599, 4620, 4641, 4662, 4683, 4704, 4725, 4746, 4767, 4788
4809, 4830, 4851, 4872, 4893, 4914, 4935, 4956, 4977, 4998, 5019, 5040
5061, 5082, 5103, 5124, 5145, 5166, 5187, 5208, 5229, 5250, 5271, 5292
5313, 5334, 5355, 5376, 5397, 5418, 5439, 5460, 5481, 5502, 5523, 5544
5565, 5586, 5607, 5628, 5649, 5670, 5691, 5712, 5733
*NSET, NSET=NY0F
1, 2, 3, 4, 5, 6, 7, 8, 9, 10, 11, 12
13, 14, 15, 16, 17, 18, 19, 20, 21, 442, 443, 444
445, 446, 447, 448, 449, 450, 451, 452, 453, 454, 455, 456
457, 458, 459, 460, 461, 462, 883, 884, 885, 886, 887, 888
889, 890, 891, 892, 893, 894, 895, 896, 897, 898, 899, 900
901, 902, 903, 1324, 1325, 1326, 1327, 1328, 1329, 1330, 1331, 1332
1333, 1334, 1335, 1336, 1337, 1338, 1339, 1340, 1341, 1342, 1343, 1344
1765, 1766, 1767, 1768, 1769, 1770, 1771, 1772, 1773, 1774, 1775, 1776
1777, 1778, 1779, 1780, 1781, 1782, 1783, 1784, 1785, 2206, 2207, 2208
2209, 2210, 2211, 2212, 2213, 2214, 2215, 2216, 2217, 2218, 2219, 2220
2221, 2222, 2223, 2224, 2225, 2226, 2647, 2648, 2649, 2650, 2651, 2652
2653, 2654, 2655, 2656, 2657, 2658, 2659, 2660, 2661, 2662, 2663, 2664
2665, 2666, 2667, 3088, 3089, 3090, 3091, 3092, 3093, 3094, 3095, 3096
3097, 3098, 3099, 3100, 3101, 3102, 3103, 3104, 3105, 3106, 3107, 3108
3529, 3530, 3531, 3532, 3533, 3534, 3535, 3536, 3537, 3538, 3539, 3540
3541, 3542, 3543, 3544, 3545, 3546, 3547, 3548, 3549, 3970, 3971, 3972
3973, 3974, 3975, 3976, 3977, 3978, 3979, 3980, 3981, 3982, 3983, 3984
3985, 3986, 3987, 3988, 3989, 3990, 4411, 4412, 4413, 4414, 4415, 4416
4417, 4418, 4419, 4420, 4421, 4422, 4423, 4424, 4425, 4426, 4427, 4428
4429, 4430, 4431, 4852, 4853, 4854, 4855, 4856, 4857, 4858, 4859, 4860
4861, 4862, 4863, 4864, 4865, 4866, 4867, 4868, 4869, 4870, 4871, 4872
5293, 5294, 5295, 5296, 5297, 5298, 5299, 5300, 5301, 5302, 5303, 5304
5305, 5306, 5307, 5308, 5309, 5310, 5311, 5312, 5313
*NSET, NSET=NYBF
421, 422, 423, 424, 425, 426, 427, 428, 429, 430, 431, 432
433, 434, 435, 436, 437, 438, 439, 440, 441, 862, 863, 864
865, 866, 867, 868, 869, 870, 871, 872, 873, 874, 875, 876
877, 878, 879, 880, 881, 882, 1303, 1304, 1305, 1306, 1307, 1308
1309, 1310, 1311, 1312, 1313, 1314, 1315, 1316, 1317, 1318, 1319, 1320
1321, 1322, 1323, 1744, 1745, 1746, 1747, 1748, 1749, 1750, 1751, 1752
1753, 1754, 1755, 1756, 1757, 1758, 1759, 1760, 1761, 1762, 1763, 1764
2185, 2186, 2187, 2188, 2189, 2190, 2191, 2192, 2193, 2194, 2195, 2196
2197, 2198, 2199, 2200, 2201, 2202, 2203, 2204, 2205, 2626, 2627, 2628
2629, 2630, 2631, 2632, 2633, 2634, 2635, 2636, 2637, 2638, 2639, 2640
2641, 2642, 2643, 2644, 2645, 2646, 3067, 3068, 3069, 3070, 3071, 3072
3073, 3074, 3075, 3076, 3077, 3078, 3079, 3080, 3081, 3082, 3083, 3084
3085, 3086, 3087, 3508, 3509, 3510, 3511, 3512, 3513, 3514, 3515, 3516
3517, 3518, 3519, 3520, 3521, 3522, 3523, 3524, 3525, 3526, 3527, 3528
3949, 3950, 3951, 3952, 3953, 3954, 3955, 3956, 3957, 3958, 3959, 3960
3961, 3962, 3963, 3964, 3965, 3966, 3967, 3968, 3969, 4390, 4391, 4392
4393, 4394, 4395, 4396, 4397, 4398, 4399, 4400, 4401, 4402, 4403, 4404
4405, 4406, 4407, 4408, 4409, 4410, 4831, 4832, 4833, 4834, 4835, 4836
4837, 4838, 4839, 4840, 4841, 4842, 4843, 4844, 4845, 4846, 4847, 4848
4849, 4850, 4851, 5272, 5273, 5274, 5275, 5276, 5277, 5278, 5279, 5280
5281, 5282, 5283, 5284, 5285, 5286, 5287, 5288, 5289, 5290, 5291, 5292
5713, 5714, 5715, 5716, 5717, 5718, 5719, 5720, 5721, 5722, 5723, 5724
5725, 5726, 5727, 5728, 5729, 5730, 5731, 5732, 5733
**
*MATERIAL, NAME=FACE
*ELASTIC, TYPE=ENGINEERING CONSTANTS
1.310000e+11, 1.034000e+10, 1.034000e+10, 0.22, 0.22, 0.22, 6.205000e+09, 6.205000e+09,
3.000000e+09
*DENSITY
1600,
*MATERIAL, NAME=CORE
*ELASTIC, TYPE=ENGINEERING CONSTANTS
5.776000e+08, 5.776000e+08, 5.776000e+08, 0.0025, 0.0025, 0.0025, 1.079000e+08, 1.079000e+08,
1.079000e+08
*DENSITY
100,
*ORIENTATION, NAME=OR1, SYSTEM=RECTANGULAR
1.0, 0.0, 0.0, 0.0, 1.0, 0.0
3, 0
*SOLID SECTION, ELSET=LAY1, MATERIAL=FACE, ORIENTATION=OR1
*ORIENTATION, NAME=OR2, SYSTEM=RECTANGULAR
1.0, 0.0, 0.0, 0.0, 1.0, 0.0
3, 0
*SOLID SECTION, ELSET=LAY2, MATERIAL=CORE, ORIENTATION=OR2
*ORIENTATION, NAME=OR3, SYSTEM=RECTANGULAR
1.0, 0.0, 0.0, 0.0, 1.0, 0.0
3, 0
*SOLID SECTION, ELSET=LAY3, MATERIAL=FACE, ORIENTATION=OR3
**
** SS-1 simple supports (same rule as the shell)
*BOUNDARY
NX0F, 2, 3
NXAF, 2, 3
NY0F, 1, 1
NYBF, 1, 1
NY0F, 3, 3
NYBF, 3, 3
*AMPLITUDE, NAME=STEPL
0., 1., 0.025, 1.
**
*STEP, NAME=PULSE, INC=1000
*DYNAMIC
5e-05, 0.025, 5e-09, 5e-05
*DLOAD, AMPLITUDE=STEPL
4401, P2, 1.000000e+04
4402, P2, 1.000000e+04
4403, P2, 1.000000e+04
4404, P2, 1.000000e+04
4405, P2, 1.000000e+04
4406, P2, 1.000000e+04
4407, P2, 1.000000e+04
4408, P2, 1.000000e+04
4409, P2, 1.000000e+04
4410, P2, 1.000000e+04
4411, P2, 1.000000e+04
4412, P2, 1.000000e+04
4413, P2, 1.000000e+04
4414, P2, 1.000000e+04
4415, P2, 1.000000e+04
4416, P2, 1.000000e+04
4417, P2, 1.000000e+04
4418, P2, 1.000000e+04
4419, P2, 1.000000e+04
4420, P2, 1.000000e+04
** ... 380 like lines cut
*OUTPUT, FIELD, FREQUENCY=50
*ELEMENT OUTPUT
S
*NODE OUTPUT
U
*NODE PRINT, NSET=NCEN3D, FREQUENCY=1
U
*EL PRINT, ELSET=COLC, POSITION=CENTROIDAL, FREQUENCY=20
S
*EL PRINT, ELSET=COLX, POSITION=CENTROIDAL, FREQUENCY=20
S
*EL PRINT, ELSET=COLY, POSITION=CENTROIDAL, FREQUENCY=20
S
*END STEP
