*HEADING
Nayak Ex.4 cantilever pm45x2_Al -- conventional Abaqus composite S4 (FSDT) frequency
*NODE
1, 0.00000000, 0.00000000, 0.0
2, 0.00633333, 0.00000000, 0.0
3, 0.01266667, 0.00000000, 0.0
4, 0.01900000, 0.00000000, 0.0
5, 0.02533333, 0.00000000, 0.0
6, 0.03166667, 0.00000000, 0.0
7, 0.03800000, 0.00000000, 0.0
8, 0.04433333, 0.00000000, 0.0
9, 0.05066667, 0.00000000, 0.0
10, 0.05700000, 0.00000000, 0.0
11, 0.06333333, 0.00000000, 0.0
12, 0.06966667, 0.00000000, 0.0
13, 0.07600000, 0.00000000, 0.0
14, 0.08233333, 0.00000000, 0.0
15, 0.08866667, 0.00000000, 0.0
16, 0.09500000, 0.00000000, 0.0
17, 0.10133333, 0.00000000, 0.0
18, 0.10766667, 0.00000000, 0.0
19, 0.11400000, 0.00000000, 0.0
20, 0.12033333, 0.00000000, 0.0
** ... 305 like lines cut
*ELEMENT, TYPE=S4, ELSET=EALL
1, 1, 2, 27, 26
2, 2, 3, 28, 27
3, 3, 4, 29, 28
4, 4, 5, 30, 29
5, 5, 6, 31, 30
6, 6, 7, 32, 31
7, 7, 8, 33, 32
8, 8, 9, 34, 33
9, 9, 10, 35, 34
10, 10, 11, 36, 35
11, 11, 12, 37, 36
12, 12, 13, 38, 37
13, 13, 14, 39, 38
14, 14, 15, 40, 39
15, 15, 16, 41, 40
16, 16, 17, 42, 41
17, 17, 18, 43, 42
18, 18, 19, 44, 43
19, 19, 20, 45, 44
20, 20, 21, 46, 45
** ... 268 like lines cut
*NSET, NSET=NROOT
1, 26, 51, 76, 101, 126, 151, 176, 201, 226, 251, 276
301
*NSET, NSET=NALL, GENERATE
1, 325, 1
*MATERIAL, NAME=GE
*ELASTIC, TYPE=LAMINA
1.280000e+11, 1.100000e+10, 0.25, 4.480000e+09, 4.480000e+09, 1.530000e+09
*DENSITY
1500,
*MATERIAL, NAME=AL
*ELASTIC, TYPE=LAMINA
6.890000e+10, 6.890000e+10, 0.3, 2.650000e+10, 2.650000e+10, 2.650000e+10
*DENSITY
2770,
*SHELL SECTION, ELSET=EALL, COMPOSITE
0.00013, 3, GE, 45
0.00013, 3, GE, -45
0.00013, 3, GE, 45
0.00013, 3, GE, -45
0.001, 3, AL, 0
0.00013, 3, GE, -45
0.00013, 3, GE, 45
0.00013, 3, GE, -45
0.00013, 3, GE, 45
*BOUNDARY
NROOT, 1, 6
NALL, 6, 6
*STEP, NAME=MODES
*FREQUENCY
8,
*END STEP
