*HEADING
Nayak Ex.4 cantilever 04_Al -- 3-D C3D8I frequency benchmark
*NODE
1, 0.00000000, 0.00000000, 0.00000000
2, 0.00633333, 0.00000000, 0.00000000
3, 0.01266667, 0.00000000, 0.00000000
4, 0.01900000, 0.00000000, 0.00000000
5, 0.02533333, 0.00000000, 0.00000000
6, 0.03166667, 0.00000000, 0.00000000
7, 0.03800000, 0.00000000, 0.00000000
8, 0.04433333, 0.00000000, 0.00000000
9, 0.05066667, 0.00000000, 0.00000000
10, 0.05700000, 0.00000000, 0.00000000
11, 0.06333333, 0.00000000, 0.00000000
12, 0.06966667, 0.00000000, 0.00000000
13, 0.07600000, 0.00000000, 0.00000000
14, 0.08233333, 0.00000000, 0.00000000
15, 0.08866667, 0.00000000, 0.00000000
16, 0.09500000, 0.00000000, 0.00000000
17, 0.10133333, 0.00000000, 0.00000000
18, 0.10766667, 0.00000000, 0.00000000
19, 0.11400000, 0.00000000, 0.00000000
20, 0.12033333, 0.00000000, 0.00000000
** ... 3230 like lines cut
*ELEMENT, TYPE=C3D8I
1, 1, 2, 27, 26, 326, 327, 352, 351
2, 2, 3, 28, 27, 327, 328, 353, 352
3, 3, 4, 29, 28, 328, 329, 354, 353
4, 4, 5, 30, 29, 329, 330, 355, 354
5, 5, 6, 31, 30, 330, 331, 356, 355
6, 6, 7, 32, 31, 331, 332, 357, 356
7, 7, 8, 33, 32, 332, 333, 358, 357
8, 8, 9, 34, 33, 333, 334, 359, 358
9, 9, 10, 35, 34, 334, 335, 360, 359
10, 10, 11, 36, 35, 335, 336, 361, 360
11, 11, 12, 37, 36, 336, 337, 362, 361
12, 12, 13, 38, 37, 337, 338, 363, 362
13, 13, 14, 39, 38, 338, 339, 364, 363
14, 14, 15, 40, 39, 339, 340, 365, 364
15, 15, 16, 41, 40, 340, 341, 366, 365
16, 16, 17, 42, 41, 341, 342, 367, 366
17, 17, 18, 43, 42, 342, 343, 368, 367
18, 18, 19, 44, 43, 343, 344, 369, 368
19, 19, 20, 45, 44, 344, 345, 370, 369
20, 20, 21, 46, 45, 345, 346, 371, 370
** ... 2572 like lines cut
*ELSET, ELSET=LAY1, GENERATE
1, 288, 1
*ELSET, ELSET=LAY2, GENERATE
289, 576, 1
*ELSET, ELSET=LAY3, GENERATE
577, 864, 1
*ELSET, ELSET=LAY4, GENERATE
865, 1152, 1
*ELSET, ELSET=LAY5, GENERATE
1153, 1440, 1
*ELSET, ELSET=LAY6, GENERATE
1441, 1728, 1
*ELSET, ELSET=LAY7, GENERATE
1729, 2016, 1
*ELSET, ELSET=LAY8, GENERATE
2017, 2304, 1
*ELSET, ELSET=LAY9, GENERATE
2305, 2592, 1
*NSET, NSET=NROOT
1, 26, 51, 76, 101, 126, 151, 176, 201, 226, 251, 276
301, 326, 351, 376, 401, 426, 451, 476, 501, 526, 551, 576
601, 626, 651, 676, 701, 726, 751, 776, 801, 826, 851, 876
901, 926, 951, 976, 1001, 1026, 1051, 1076, 1101, 1126, 1151, 1176
1201, 1226, 1251, 1276, 1301, 1326, 1351, 1376, 1401, 1426, 1451, 1476
1501, 1526, 1551, 1576, 1601, 1626, 1651, 1676, 1701, 1726, 1751, 1776
1801, 1826, 1851, 1876, 1901, 1926, 1951, 1976, 2001, 2026, 2051, 2076
2101, 2126, 2151, 2176, 2201, 2226, 2251, 2276, 2301, 2326, 2351, 2376
2401, 2426, 2451, 2476, 2501, 2526, 2551, 2576, 2601, 2626, 2651, 2676
2701, 2726, 2751, 2776, 2801, 2826, 2851, 2876, 2901, 2926, 2951, 2976
3001, 3026, 3051, 3076, 3101, 3126, 3151, 3176, 3201, 3226
*MATERIAL, NAME=GE
*ELASTIC, TYPE=ENGINEERING CONSTANTS
1.280000e+11, 1.100000e+10, 1.100000e+10, 0.25, 0.25, 0.25, 4.480000e+09, 4.480000e+09,
1.530000e+09
*DENSITY
1500,
*MATERIAL, NAME=AL
*ELASTIC, TYPE=ENGINEERING CONSTANTS
6.890000e+10, 6.890000e+10, 6.890000e+10, 0.3, 0.3, 0.3, 2.650000e+10, 2.650000e+10,
2.650000e+10
*DENSITY
2770,
*ORIENTATION, NAME=OR1, SYSTEM=RECTANGULAR
1.0, 0.0, 0.0, 0.0, 1.0, 0.0
3, 0
*SOLID SECTION, ELSET=LAY1, MATERIAL=GE, ORIENTATION=OR1
*ORIENTATION, NAME=OR2, SYSTEM=RECTANGULAR
1.0, 0.0, 0.0, 0.0, 1.0, 0.0
3, 0
*SOLID SECTION, ELSET=LAY2, MATERIAL=GE, ORIENTATION=OR2
*ORIENTATION, NAME=OR3, SYSTEM=RECTANGULAR
1.0, 0.0, 0.0, 0.0, 1.0, 0.0
3, 0
*SOLID SECTION, ELSET=LAY3, MATERIAL=GE, ORIENTATION=OR3
*ORIENTATION, NAME=OR4, SYSTEM=RECTANGULAR
1.0, 0.0, 0.0, 0.0, 1.0, 0.0
3, 0
*SOLID SECTION, ELSET=LAY4, MATERIAL=GE, ORIENTATION=OR4
*ORIENTATION, NAME=OR5, SYSTEM=RECTANGULAR
1.0, 0.0, 0.0, 0.0, 1.0, 0.0
3, 0
*SOLID SECTION, ELSET=LAY5, MATERIAL=AL, ORIENTATION=OR5
*ORIENTATION, NAME=OR6, SYSTEM=RECTANGULAR
1.0, 0.0, 0.0, 0.0, 1.0, 0.0
3, 0
*SOLID SECTION, ELSET=LAY6, MATERIAL=GE, ORIENTATION=OR6
*ORIENTATION, NAME=OR7, SYSTEM=RECTANGULAR
1.0, 0.0, 0.0, 0.0, 1.0, 0.0
3, 0
*SOLID SECTION, ELSET=LAY7, MATERIAL=GE, ORIENTATION=OR7
*ORIENTATION, NAME=OR8, SYSTEM=RECTANGULAR
1.0, 0.0, 0.0, 0.0, 1.0, 0.0
3, 0
*SOLID SECTION, ELSET=LAY8, MATERIAL=GE, ORIENTATION=OR8
*ORIENTATION, NAME=OR9, SYSTEM=RECTANGULAR
1.0, 0.0, 0.0, 0.0, 1.0, 0.0
3, 0
*SOLID SECTION, ELSET=LAY9, MATERIAL=GE, ORIENTATION=OR9
*BOUNDARY
NROOT, 1, 3
*STEP, NAME=MODES
*FREQUENCY
8,
*END STEP
