*HEADING
Nayak-Shenoi-Moy Ex.5 sandwich, 3-D SOLID benchmark, step pulse
** 20 x 20 x 16 C3D8I; one element per face ply, 8 through core
*NODE
1, 0.00000000, 0.00000000, 0.00000000
2, 0.07620000, 0.00000000, 0.00000000
3, 0.15240000, 0.00000000, 0.00000000
4, 0.22860000, 0.00000000, 0.00000000
5, 0.30480000, 0.00000000, 0.00000000
6, 0.38100000, 0.00000000, 0.00000000
7, 0.45720000, 0.00000000, 0.00000000
8, 0.53340000, 0.00000000, 0.00000000
9, 0.60960000, 0.00000000, 0.00000000
10, 0.68580000, 0.00000000, 0.00000000
11, 0.76200000, 0.00000000, 0.00000000
12, 0.83820000, 0.00000000, 0.00000000
13, 0.91440000, 0.00000000, 0.00000000
14, 0.99060000, 0.00000000, 0.00000000
15, 1.06680000, 0.00000000, 0.00000000
16, 1.14300000, 0.00000000, 0.00000000
17, 1.21920000, 0.00000000, 0.00000000
18, 1.29540000, 0.00000000, 0.00000000
19, 1.37160000, 0.00000000, 0.00000000
20, 1.44780000, 0.00000000, 0.00000000
** ... 7477 like lines cut
*ELEMENT, TYPE=C3D8I
1, 1, 2, 23, 22, 442, 443, 464, 463
2, 2, 3, 24, 23, 443, 444, 465, 464
3, 3, 4, 25, 24, 444, 445, 466, 465
4, 4, 5, 26, 25, 445, 446, 467, 466
5, 5, 6, 27, 26, 446, 447, 468, 467
6, 6, 7, 28, 27, 447, 448, 469, 468
7, 7, 8, 29, 28, 448, 449, 470, 469
8, 8, 9, 30, 29, 449, 450, 471, 470
9, 9, 10, 31, 30, 450, 451, 472, 471
10, 10, 11, 32, 31, 451, 452, 473, 472
11, 11, 12, 33, 32, 452, 453, 474, 473
12, 12, 13, 34, 33, 453, 454, 475, 474
13, 13, 14, 35, 34, 454, 455, 476, 475
14, 14, 15, 36, 35, 455, 456, 477, 476
15, 15, 16, 37, 36, 456, 457, 478, 477
16, 16, 17, 38, 37, 457, 458, 479, 478
17, 17, 18, 39, 38, 458, 459, 480, 479
18, 18, 19, 40, 39, 459, 460, 481, 480
19, 19, 20, 41, 40, 460, 461, 482, 481
20, 20, 21, 42, 41, 461, 462, 483, 482
** ... 6380 like lines cut
*ELSET, ELSET=PLY1
1, 2, 3, 4, 5, 6, 7, 8, 9, 10, 11, 12
13, 14, 15, 16, 17, 18, 19, 20, 21, 22, 23, 24
25, 26, 27, 28, 29, 30, 31, 32, 33, 34, 35, 36
37, 38, 39, 40, 41, 42, 43, 44, 45, 46, 47, 48
49, 50, 51, 52, 53, 54, 55, 56, 57, 58, 59, 60
61, 62, 63, 64, 65, 66, 67, 68, 69, 70, 71, 72
73, 74, 75, 76, 77, 78, 79, 80, 81, 82, 83, 84
85, 86, 87, 88, 89, 90, 91, 92, 93, 94, 95, 96
97, 98, 99, 100, 101, 102, 103, 104, 105, 106, 107, 108
109, 110, 111, 112, 113, 114, 115, 116, 117, 118, 119, 120
121, 122, 123, 124, 125, 126, 127, 128, 129, 130, 131, 132
133, 134, 135, 136, 137, 138, 139, 140, 141, 142, 143, 144
145, 146, 147, 148, 149, 150, 151, 152, 153, 154, 155, 156
157, 158, 159, 160, 161, 162, 163, 164, 165, 166, 167, 168
169, 170, 171, 172, 173, 174, 175, 176, 177, 178, 179, 180
181, 182, 183, 184, 185, 186, 187, 188, 189, 190, 191, 192
193, 194, 195, 196, 197, 198, 199, 200, 201, 202, 203, 204
205, 206, 207, 208, 209, 210, 211, 212, 213, 214, 215, 216
217, 218, 219, 220, 221, 222, 223, 224, 225, 226, 227, 228
229, 230, 231, 232, 233, 234, 235, 236, 237, 238, 239, 240
** ... 14 like lines cut
*ELSET, ELSET=PLY2
401, 402, 403, 404, 405, 406, 407, 408, 409, 410, 411, 412
413, 414, 415, 416, 417, 418, 419, 420, 421, 422, 423, 424
425, 426, 427, 428, 429, 430, 431, 432, 433, 434, 435, 436
437, 438, 439, 440, 441, 442, 443, 444, 445, 446, 447, 448
449, 450, 451, 452, 453, 454, 455, 456, 457, 458, 459, 460
461, 462, 463, 464, 465, 466, 467, 468, 469, 470, 471, 472
473, 474, 475, 476, 477, 478, 479, 480, 481, 482, 483, 484
485, 486, 487, 488, 489, 490, 491, 492, 493, 494, 495, 496
497, 498, 499, 500, 501, 502, 503, 504, 505, 506, 507, 508
509, 510, 511, 512, 513, 514, 515, 516, 517, 518, 519, 520
521, 522, 523, 524, 525, 526, 527, 528, 529, 530, 531, 532
533, 534, 535, 536, 537, 538, 539, 540, 541, 542, 543, 544
545, 546, 547, 548, 549, 550, 551, 552, 553, 554, 555, 556
557, 558, 559, 560, 561, 562, 563, 564, 565, 566, 567, 568
569, 570, 571, 572, 573, 574, 575, 576, 577, 578, 579, 580
581, 582, 583, 584, 585, 586, 587, 588, 589, 590, 591, 592
593, 594, 595, 596, 597, 598, 599, 600, 601, 602, 603, 604
605, 606, 607, 608, 609, 610, 611, 612, 613, 614, 615, 616
617, 618, 619, 620, 621, 622, 623, 624, 625, 626, 627, 628
629, 630, 631, 632, 633, 634, 635, 636, 637, 638, 639, 640
** ... 14 like lines cut
*ELSET, ELSET=PLY3
801, 802, 803, 804, 805, 806, 807, 808, 809, 810, 811, 812
813, 814, 815, 816, 817, 818, 819, 820, 821, 822, 823, 824
825, 826, 827, 828, 829, 830, 831, 832, 833, 834, 835, 836
837, 838, 839, 840, 841, 842, 843, 844, 845, 846, 847, 848
849, 850, 851, 852, 853, 854, 855, 856, 857, 858, 859, 860
861, 862, 863, 864, 865, 866, 867, 868, 869, 870, 871, 872
873, 874, 875, 876, 877, 878, 879, 880, 881, 882, 883, 884
885, 886, 887, 888, 889, 890, 891, 892, 893, 894, 895, 896
897, 898, 899, 900, 901, 902, 903, 904, 905, 906, 907, 908
909, 910, 911, 912, 913, 914, 915, 916, 917, 918, 919, 920
921, 922, 923, 924, 925, 926, 927, 928, 929, 930, 931, 932
933, 934, 935, 936, 937, 938, 939, 940, 941, 942, 943, 944
945, 946, 947, 948, 949, 950, 951, 952, 953, 954, 955, 956
957, 958, 959, 960, 961, 962, 963, 964, 965, 966, 967, 968
969, 970, 971, 972, 973, 974, 975, 976, 977, 978, 979, 980
981, 982, 983, 984, 985, 986, 987, 988, 989, 990, 991, 992
993, 994, 995, 996, 997, 998, 999, 1000, 1001, 1002, 1003, 1004
1005, 1006, 1007, 1008, 1009, 1010, 1011, 1012, 1013, 1014, 1015, 1016
1017, 1018, 1019, 1020, 1021, 1022, 1023, 1024, 1025, 1026, 1027, 1028
1029, 1030, 1031, 1032, 1033, 1034, 1035, 1036, 1037, 1038, 1039, 1040
** ... 14 like lines cut
*ELSET, ELSET=PLY4
1201, 1202, 1203, 1204, 1205, 1206, 1207, 1208, 1209, 1210, 1211, 1212
1213, 1214, 1215, 1216, 1217, 1218, 1219, 1220, 1221, 1222, 1223, 1224
1225, 1226, 1227, 1228, 1229, 1230, 1231, 1232, 1233, 1234, 1235, 1236
1237, 1238, 1239, 1240, 1241, 1242, 1243, 1244, 1245, 1246, 1247, 1248
1249, 1250, 1251, 1252, 1253, 1254, 1255, 1256, 1257, 1258, 1259, 1260
1261, 1262, 1263, 1264, 1265, 1266, 1267, 1268, 1269, 1270, 1271, 1272
1273, 1274, 1275, 1276, 1277, 1278, 1279, 1280, 1281, 1282, 1283, 1284
1285, 1286, 1287, 1288, 1289, 1290, 1291, 1292, 1293, 1294, 1295, 1296
1297, 1298, 1299, 1300, 1301, 1302, 1303, 1304, 1305, 1306, 1307, 1308
1309, 1310, 1311, 1312, 1313, 1314, 1315, 1316, 1317, 1318, 1319, 1320
1321, 1322, 1323, 1324, 1325, 1326, 1327, 1328, 1329, 1330, 1331, 1332
1333, 1334, 1335, 1336, 1337, 1338, 1339, 1340, 1341, 1342, 1343, 1344
1345, 1346, 1347, 1348, 1349, 1350, 1351, 1352, 1353, 1354, 1355, 1356
1357, 1358, 1359, 1360, 1361, 1362, 1363, 1364, 1365, 1366, 1367, 1368
1369, 1370, 1371, 1372, 1373, 1374, 1375, 1376, 1377, 1378, 1379, 1380
1381, 1382, 1383, 1384, 1385, 1386, 1387, 1388, 1389, 1390, 1391, 1392
1393, 1394, 1395, 1396, 1397, 1398, 1399, 1400, 1401, 1402, 1403, 1404
1405, 1406, 1407, 1408, 1409, 1410, 1411, 1412, 1413, 1414, 1415, 1416
1417, 1418, 1419, 1420, 1421, 1422, 1423, 1424, 1425, 1426, 1427, 1428
1429, 1430, 1431, 1432, 1433, 1434, 1435, 1436, 1437, 1438, 1439, 1440
** ... 14 like lines cut
*ELSET, ELSET=PLY5
1601, 1602, 1603, 1604, 1605, 1606, 1607, 1608, 1609, 1610, 1611, 1612
1613, 1614, 1615, 1616, 1617, 1618, 1619, 1620, 1621, 1622, 1623, 1624
1625, 1626, 1627, 1628, 1629, 1630, 1631, 1632, 1633, 1634, 1635, 1636
1637, 1638, 1639, 1640, 1641, 1642, 1643, 1644, 1645, 1646, 1647, 1648
1649, 1650, 1651, 1652, 1653, 1654, 1655, 1656, 1657, 1658, 1659, 1660
1661, 1662, 1663, 1664, 1665, 1666, 1667, 1668, 1669, 1670, 1671, 1672
1673, 1674, 1675, 1676, 1677, 1678, 1679, 1680, 1681, 1682, 1683, 1684
1685, 1686, 1687, 1688, 1689, 1690, 1691, 1692, 1693, 1694, 1695, 1696
1697, 1698, 1699, 1700, 1701, 1702, 1703, 1704, 1705, 1706, 1707, 1708
1709, 1710, 1711, 1712, 1713, 1714, 1715, 1716, 1717, 1718, 1719, 1720
1721, 1722, 1723, 1724, 1725, 1726, 1727, 1728, 1729, 1730, 1731, 1732
1733, 1734, 1735, 1736, 1737, 1738, 1739, 1740, 1741, 1742, 1743, 1744
1745, 1746, 1747, 1748, 1749, 1750, 1751, 1752, 1753, 1754, 1755, 1756
1757, 1758, 1759, 1760, 1761, 1762, 1763, 1764, 1765, 1766, 1767, 1768
1769, 1770, 1771, 1772, 1773, 1774, 1775, 1776, 1777, 1778, 1779, 1780
1781, 1782, 1783, 1784, 1785, 1786, 1787, 1788, 1789, 1790, 1791, 1792
1793, 1794, 1795, 1796, 1797, 1798, 1799, 1800, 1801, 1802, 1803, 1804
1805, 1806, 1807, 1808, 1809, 1810, 1811, 1812, 1813, 1814, 1815, 1816
1817, 1818, 1819, 1820, 1821, 1822, 1823, 1824, 1825, 1826, 1827, 1828
1829, 1830, 1831, 1832, 1833, 1834, 1835, 1836, 1837, 1838, 1839, 1840
** ... 247 like lines cut
*ELSET, ELSET=PLY6
4801, 4802, 4803, 4804, 4805, 4806, 4807, 4808, 4809, 4810, 4811, 4812
4813, 4814, 4815, 4816, 4817, 4818, 4819, 4820, 4821, 4822, 4823, 4824
4825, 4826, 4827, 4828, 4829, 4830, 4831, 4832, 4833, 4834, 4835, 4836
4837, 4838, 4839, 4840, 4841, 4842, 4843, 4844, 4845, 4846, 4847, 4848
4849, 4850, 4851, 4852, 4853, 4854, 4855, 4856, 4857, 4858, 4859, 4860
4861, 4862, 4863, 4864, 4865, 4866, 4867, 4868, 4869, 4870, 4871, 4872
4873, 4874, 4875, 4876, 4877, 4878, 4879, 4880, 4881, 4882, 4883, 4884
4885, 4886, 4887, 4888, 4889, 4890, 4891, 4892, 4893, 4894, 4895, 4896
4897, 4898, 4899, 4900, 4901, 4902, 4903, 4904, 4905, 4906, 4907, 4908
4909, 4910, 4911, 4912, 4913, 4914, 4915, 4916, 4917, 4918, 4919, 4920
4921, 4922, 4923, 4924, 4925, 4926, 4927, 4928, 4929, 4930, 4931, 4932
4933, 4934, 4935, 4936, 4937, 4938, 4939, 4940, 4941, 4942, 4943, 4944
4945, 4946, 4947, 4948, 4949, 4950, 4951, 4952, 4953, 4954, 4955, 4956
4957, 4958, 4959, 4960, 4961, 4962, 4963, 4964, 4965, 4966, 4967, 4968
4969, 4970, 4971, 4972, 4973, 4974, 4975, 4976, 4977, 4978, 4979, 4980
4981, 4982, 4983, 4984, 4985, 4986, 4987, 4988, 4989, 4990, 4991, 4992
4993, 4994, 4995, 4996, 4997, 4998, 4999, 5000, 5001, 5002, 5003, 5004
5005, 5006, 5007, 5008, 5009, 5010, 5011, 5012, 5013, 5014, 5015, 5016
5017, 5018, 5019, 5020, 5021, 5022, 5023, 5024, 5025, 5026, 5027, 5028
5029, 5030, 5031, 5032, 5033, 5034, 5035, 5036, 5037, 5038, 5039, 5040
** ... 14 like lines cut
*ELSET, ELSET=PLY7
5201, 5202, 5203, 5204, 5205, 5206, 5207, 5208, 5209, 5210, 5211, 5212
5213, 5214, 5215, 5216, 5217, 5218, 5219, 5220, 5221, 5222, 5223, 5224
5225, 5226, 5227, 5228, 5229, 5230, 5231, 5232, 5233, 5234, 5235, 5236
5237, 5238, 5239, 5240, 5241, 5242, 5243, 5244, 5245, 5246, 5247, 5248
5249, 5250, 5251, 5252, 5253, 5254, 5255, 5256, 5257, 5258, 5259, 5260
5261, 5262, 5263, 5264, 5265, 5266, 5267, 5268, 5269, 5270, 5271, 5272
5273, 5274, 5275, 5276, 5277, 5278, 5279, 5280, 5281, 5282, 5283, 5284
5285, 5286, 5287, 5288, 5289, 5290, 5291, 5292, 5293, 5294, 5295, 5296
5297, 5298, 5299, 5300, 5301, 5302, 5303, 5304, 5305, 5306, 5307, 5308
5309, 5310, 5311, 5312, 5313, 5314, 5315, 5316, 5317, 5318, 5319, 5320
5321, 5322, 5323, 5324, 5325, 5326, 5327, 5328, 5329, 5330, 5331, 5332
5333, 5334, 5335, 5336, 5337, 5338, 5339, 5340, 5341, 5342, 5343, 5344
5345, 5346, 5347, 5348, 5349, 5350, 5351, 5352, 5353, 5354, 5355, 5356
5357, 5358, 5359, 5360, 5361, 5362, 5363, 5364, 5365, 5366, 5367, 5368
5369, 5370, 5371, 5372, 5373, 5374, 5375, 5376, 5377, 5378, 5379, 5380
5381, 5382, 5383, 5384, 5385, 5386, 5387, 5388, 5389, 5390, 5391, 5392
5393, 5394, 5395, 5396, 5397, 5398, 5399, 5400, 5401, 5402, 5403, 5404
5405, 5406, 5407, 5408, 5409, 5410, 5411, 5412, 5413, 5414, 5415, 5416
5417, 5418, 5419, 5420, 5421, 5422, 5423, 5424, 5425, 5426, 5427, 5428
5429, 5430, 5431, 5432, 5433, 5434, 5435, 5436, 5437, 5438, 5439, 5440
** ... 14 like lines cut
*ELSET, ELSET=PLY8
5601, 5602, 5603, 5604, 5605, 5606, 5607, 5608, 5609, 5610, 5611, 5612
5613, 5614, 5615, 5616, 5617, 5618, 5619, 5620, 5621, 5622, 5623, 5624
5625, 5626, 5627, 5628, 5629, 5630, 5631, 5632, 5633, 5634, 5635, 5636
5637, 5638, 5639, 5640, 5641, 5642, 5643, 5644, 5645, 5646, 5647, 5648
5649, 5650, 5651, 5652, 5653, 5654, 5655, 5656, 5657, 5658, 5659, 5660
5661, 5662, 5663, 5664, 5665, 5666, 5667, 5668, 5669, 5670, 5671, 5672
5673, 5674, 5675, 5676, 5677, 5678, 5679, 5680, 5681, 5682, 5683, 5684
5685, 5686, 5687, 5688, 5689, 5690, 5691, 5692, 5693, 5694, 5695, 5696
5697, 5698, 5699, 5700, 5701, 5702, 5703, 5704, 5705, 5706, 5707, 5708
5709, 5710, 5711, 5712, 5713, 5714, 5715, 5716, 5717, 5718, 5719, 5720
5721, 5722, 5723, 5724, 5725, 5726, 5727, 5728, 5729, 5730, 5731, 5732
5733, 5734, 5735, 5736, 5737, 5738, 5739, 5740, 5741, 5742, 5743, 5744
5745, 5746, 5747, 5748, 5749, 5750, 5751, 5752, 5753, 5754, 5755, 5756
5757, 5758, 5759, 5760, 5761, 5762, 5763, 5764, 5765, 5766, 5767, 5768
5769, 5770, 5771, 5772, 5773, 5774, 5775, 5776, 5777, 5778, 5779, 5780
5781, 5782, 5783, 5784, 5785, 5786, 5787, 5788, 5789, 5790, 5791, 5792
5793, 5794, 5795, 5796, 5797, 5798, 5799, 5800, 5801, 5802, 5803, 5804
5805, 5806, 5807, 5808, 5809, 5810, 5811, 5812, 5813, 5814, 5815, 5816
5817, 5818, 5819, 5820, 5821, 5822, 5823, 5824, 5825, 5826, 5827, 5828
5829, 5830, 5831, 5832, 5833, 5834, 5835, 5836, 5837, 5838, 5839, 5840
** ... 14 like lines cut
*ELSET, ELSET=PLY9
6001, 6002, 6003, 6004, 6005, 6006, 6007, 6008, 6009, 6010, 6011, 6012
6013, 6014, 6015, 6016, 6017, 6018, 6019, 6020, 6021, 6022, 6023, 6024
6025, 6026, 6027, 6028, 6029, 6030, 6031, 6032, 6033, 6034, 6035, 6036
6037, 6038, 6039, 6040, 6041, 6042, 6043, 6044, 6045, 6046, 6047, 6048
6049, 6050, 6051, 6052, 6053, 6054, 6055, 6056, 6057, 6058, 6059, 6060
6061, 6062, 6063, 6064, 6065, 6066, 6067, 6068, 6069, 6070, 6071, 6072
6073, 6074, 6075, 6076, 6077, 6078, 6079, 6080, 6081, 6082, 6083, 6084
6085, 6086, 6087, 6088, 6089, 6090, 6091, 6092, 6093, 6094, 6095, 6096
6097, 6098, 6099, 6100, 6101, 6102, 6103, 6104, 6105, 6106, 6107, 6108
6109, 6110, 6111, 6112, 6113, 6114, 6115, 6116, 6117, 6118, 6119, 6120
6121, 6122, 6123, 6124, 6125, 6126, 6127, 6128, 6129, 6130, 6131, 6132
6133, 6134, 6135, 6136, 6137, 6138, 6139, 6140, 6141, 6142, 6143, 6144
6145, 6146, 6147, 6148, 6149, 6150, 6151, 6152, 6153, 6154, 6155, 6156
6157, 6158, 6159, 6160, 6161, 6162, 6163, 6164, 6165, 6166, 6167, 6168
6169, 6170, 6171, 6172, 6173, 6174, 6175, 6176, 6177, 6178, 6179, 6180
6181, 6182, 6183, 6184, 6185, 6186, 6187, 6188, 6189, 6190, 6191, 6192
6193, 6194, 6195, 6196, 6197, 6198, 6199, 6200, 6201, 6202, 6203, 6204
6205, 6206, 6207, 6208, 6209, 6210, 6211, 6212, 6213, 6214, 6215, 6216
6217, 6218, 6219, 6220, 6221, 6222, 6223, 6224, 6225, 6226, 6227, 6228
6229, 6230, 6231, 6232, 6233, 6234, 6235, 6236, 6237, 6238, 6239, 6240
** ... 14 like lines cut
*NSET, NSET=NCEN3D
3749
*ELSET, ELSET=COLC
190, 191, 210, 211, 590, 591, 610, 611, 990, 991, 1010, 1011
1390, 1391, 1410, 1411, 1790, 1791, 1810, 1811, 2190, 2191, 2210, 2211
2590, 2591, 2610, 2611, 2990, 2991, 3010, 3011, 3390, 3391, 3410, 3411
3790, 3791, 3810, 3811, 4190, 4191, 4210, 4211, 4590, 4591, 4610, 4611
4990, 4991, 5010, 5011, 5390, 5391, 5410, 5411, 5790, 5791, 5810, 5811
6190, 6191, 6210, 6211
*ELSET, ELSET=COLX
181, 201, 581, 601, 981, 1001, 1381, 1401, 1781, 1801, 2181, 2201
2581, 2601, 2981, 3001, 3381, 3401, 3781, 3801, 4181, 4201, 4581, 4601
4981, 5001, 5381, 5401, 5781, 5801, 6181, 6201
*ELSET, ELSET=COLY
10, 11, 410, 411, 810, 811, 1210, 1211, 1610, 1611, 2010, 2011
2410, 2411, 2810, 2811, 3210, 3211, 3610, 3611, 4010, 4011, 4410, 4411
4810, 4811, 5210, 5211, 5610, 5611, 6010, 6011
*NSET, NSET=NX0F
1, 22, 43, 64, 85, 106, 127, 148, 169, 190, 211, 232
253, 274, 295, 316, 337, 358, 379, 400, 421, 442, 463, 484
505, 526, 547, 568, 589, 610, 631, 652, 673, 694, 715, 736
757, 778, 799, 820, 841, 862, 883, 904, 925, 946, 967, 988
1009, 1030, 1051, 1072, 1093, 1114, 1135, 1156, 1177, 1198, 1219, 1240
1261, 1282, 1303, 1324, 1345, 1366, 1387, 1408, 1429, 1450, 1471, 1492
1513, 1534, 1555, 1576, 1597, 1618, 1639, 1660, 1681, 1702, 1723, 1744
1765, 1786, 1807, 1828, 1849, 1870, 1891, 1912, 1933, 1954, 1975, 1996
2017, 2038, 2059, 2080, 2101, 2122, 2143, 2164, 2185, 2206, 2227, 2248
2269, 2290, 2311, 2332, 2353, 2374, 2395, 2416, 2437, 2458, 2479, 2500
2521, 2542, 2563, 2584, 2605, 2626, 2647, 2668, 2689, 2710, 2731, 2752
2773, 2794, 2815, 2836, 2857, 2878, 2899, 2920, 2941, 2962, 2983, 3004
3025, 3046, 3067, 3088, 3109, 3130, 3151, 3172, 3193, 3214, 3235, 3256
3277, 3298, 3319, 3340, 3361, 3382, 3403, 3424, 3445, 3466, 3487, 3508
3529, 3550, 3571, 3592, 3613, 3634, 3655, 3676, 3697, 3718, 3739, 3760
3781, 3802, 3823, 3844, 3865, 3886, 3907, 3928, 3949, 3970, 3991, 4012
4033, 4054, 4075, 4096, 4117, 4138, 4159, 4180, 4201, 4222, 4243, 4264
4285, 4306, 4327, 4348, 4369, 4390, 4411, 4432, 4453, 4474, 4495, 4516
4537, 4558, 4579, 4600, 4621, 4642, 4663, 4684, 4705, 4726, 4747, 4768
4789, 4810, 4831, 4852, 4873, 4894, 4915, 4936, 4957, 4978, 4999, 5020
** ... 10 like lines cut
*NSET, NSET=NXAF
21, 42, 63, 84, 105, 126, 147, 168, 189, 210, 231, 252
273, 294, 315, 336, 357, 378, 399, 420, 441, 462, 483, 504
525, 546, 567, 588, 609, 630, 651, 672, 693, 714, 735, 756
777, 798, 819, 840, 861, 882, 903, 924, 945, 966, 987, 1008
1029, 1050, 1071, 1092, 1113, 1134, 1155, 1176, 1197, 1218, 1239, 1260
1281, 1302, 1323, 1344, 1365, 1386, 1407, 1428, 1449, 1470, 1491, 1512
1533, 1554, 1575, 1596, 1617, 1638, 1659, 1680, 1701, 1722, 1743, 1764
1785, 1806, 1827, 1848, 1869, 1890, 1911, 1932, 1953, 1974, 1995, 2016
2037, 2058, 2079, 2100, 2121, 2142, 2163, 2184, 2205, 2226, 2247, 2268
2289, 2310, 2331, 2352, 2373, 2394, 2415, 2436, 2457, 2478, 2499, 2520
2541, 2562, 2583, 2604, 2625, 2646, 2667, 2688, 2709, 2730, 2751, 2772
2793, 2814, 2835, 2856, 2877, 2898, 2919, 2940, 2961, 2982, 3003, 3024
3045, 3066, 3087, 3108, 3129, 3150, 3171, 3192, 3213, 3234, 3255, 3276
3297, 3318, 3339, 3360, 3381, 3402, 3423, 3444, 3465, 3486, 3507, 3528
3549, 3570, 3591, 3612, 3633, 3654, 3675, 3696, 3717, 3738, 3759, 3780
3801, 3822, 3843, 3864, 3885, 3906, 3927, 3948, 3969, 3990, 4011, 4032
4053, 4074, 4095, 4116, 4137, 4158, 4179, 4200, 4221, 4242, 4263, 4284
4305, 4326, 4347, 4368, 4389, 4410, 4431, 4452, 4473, 4494, 4515, 4536
4557, 4578, 4599, 4620, 4641, 4662, 4683, 4704, 4725, 4746, 4767, 4788
4809, 4830, 4851, 4872, 4893, 4914, 4935, 4956, 4977, 4998, 5019, 5040
** ... 10 like lines cut
*NSET, NSET=NY0F
1, 2, 3, 4, 5, 6, 7, 8, 9, 10, 11, 12
13, 14, 15, 16, 17, 18, 19, 20, 21, 442, 443, 444
445, 446, 447, 448, 449, 450, 451, 452, 453, 454, 455, 456
457, 458, 459, 460, 461, 462, 883, 884, 885, 886, 887, 888
889, 890, 891, 892, 893, 894, 895, 896, 897, 898, 899, 900
901, 902, 903, 1324, 1325, 1326, 1327, 1328, 1329, 1330, 1331, 1332
1333, 1334, 1335, 1336, 1337, 1338, 1339, 1340, 1341, 1342, 1343, 1344
1765, 1766, 1767, 1768, 1769, 1770, 1771, 1772, 1773, 1774, 1775, 1776
1777, 1778, 1779, 1780, 1781, 1782, 1783, 1784, 1785, 2206, 2207, 2208
2209, 2210, 2211, 2212, 2213, 2214, 2215, 2216, 2217, 2218, 2219, 2220
2221, 2222, 2223, 2224, 2225, 2226, 2647, 2648, 2649, 2650, 2651, 2652
2653, 2654, 2655, 2656, 2657, 2658, 2659, 2660, 2661, 2662, 2663, 2664
2665, 2666, 2667, 3088, 3089, 3090, 3091, 3092, 3093, 3094, 3095, 3096
3097, 3098, 3099, 3100, 3101, 3102, 3103, 3104, 3105, 3106, 3107, 3108
3529, 3530, 3531, 3532, 3533, 3534, 3535, 3536, 3537, 3538, 3539, 3540
3541, 3542, 3543, 3544, 3545, 3546, 3547, 3548, 3549, 3970, 3971, 3972
3973, 3974, 3975, 3976, 3977, 3978, 3979, 3980, 3981, 3982, 3983, 3984
3985, 3986, 3987, 3988, 3989, 3990, 4411, 4412, 4413, 4414, 4415, 4416
4417, 4418, 4419, 4420, 4421, 4422, 4423, 4424, 4425, 4426, 4427, 4428
4429, 4430, 4431, 4852, 4853, 4854, 4855, 4856, 4857, 4858, 4859, 4860
** ... 10 like lines cut
*NSET, NSET=NYBF
421, 422, 423, 424, 425, 426, 427, 428, 429, 430, 431, 432
433, 434, 435, 436, 437, 438, 439, 440, 441, 862, 863, 864
865, 866, 867, 868, 869, 870, 871, 872, 873, 874, 875, 876
877, 878, 879, 880, 881, 882, 1303, 1304, 1305, 1306, 1307, 1308
1309, 1310, 1311, 1312, 1313, 1314, 1315, 1316, 1317, 1318, 1319, 1320
1321, 1322, 1323, 1744, 1745, 1746, 1747, 1748, 1749, 1750, 1751, 1752
1753, 1754, 1755, 1756, 1757, 1758, 1759, 1760, 1761, 1762, 1763, 1764
2185, 2186, 2187, 2188, 2189, 2190, 2191, 2192, 2193, 2194, 2195, 2196
2197, 2198, 2199, 2200, 2201, 2202, 2203, 2204, 2205, 2626, 2627, 2628
2629, 2630, 2631, 2632, 2633, 2634, 2635, 2636, 2637, 2638, 2639, 2640
2641, 2642, 2643, 2644, 2645, 2646, 3067, 3068, 3069, 3070, 3071, 3072
3073, 3074, 3075, 3076, 3077, 3078, 3079, 3080, 3081, 3082, 3083, 3084
3085, 3086, 3087, 3508, 3509, 3510, 3511, 3512, 3513, 3514, 3515, 3516
3517, 3518, 3519, 3520, 3521, 3522, 3523, 3524, 3525, 3526, 3527, 3528
3949, 3950, 3951, 3952, 3953, 3954, 3955, 3956, 3957, 3958, 3959, 3960
3961, 3962, 3963, 3964, 3965, 3966, 3967, 3968, 3969, 4390, 4391, 4392
4393, 4394, 4395, 4396, 4397, 4398, 4399, 4400, 4401, 4402, 4403, 4404
4405, 4406, 4407, 4408, 4409, 4410, 4831, 4832, 4833, 4834, 4835, 4836
4837, 4838, 4839, 4840, 4841, 4842, 4843, 4844, 4845, 4846, 4847, 4848
4849, 4850, 4851, 5272, 5273, 5274, 5275, 5276, 5277, 5278, 5279, 5280
** ... 10 like lines cut
**
*MATERIAL, NAME=GE
*ELASTIC, TYPE=ENGINEERING CONSTANTS
1.280000e+11, 1.100000e+10, 1.100000e+10, 0.25, 0.25, 0.25, 4.480000e+09, 4.480000e+09,
1.530000e+09
*DENSITY
1500,
*MATERIAL, NAME=HEREX
*ELASTIC, TYPE=ENGINEERING CONSTANTS
1.036300e+08, 1.036300e+08, 1.036300e+08, 0.32, 0.32, 0.32, 5.000000e+07, 5.000000e+07,
5.000000e+07
*DENSITY
130,
*ORIENTATION, NAME=OR1, SYSTEM=RECTANGULAR
1.0, 0.0, 0.0, 0.0, 1.0, 0.0
3, 0
*SOLID SECTION, ELSET=PLY1, MATERIAL=GE, ORIENTATION=OR1
*ORIENTATION, NAME=OR2, SYSTEM=RECTANGULAR
1.0, 0.0, 0.0, 0.0, 1.0, 0.0
3, 90
*SOLID SECTION, ELSET=PLY2, MATERIAL=GE, ORIENTATION=OR2
*ORIENTATION, NAME=OR3, SYSTEM=RECTANGULAR
1.0, 0.0, 0.0, 0.0, 1.0, 0.0
3, 0
*SOLID SECTION, ELSET=PLY3, MATERIAL=GE, ORIENTATION=OR3
*ORIENTATION, NAME=OR4, SYSTEM=RECTANGULAR
1.0, 0.0, 0.0, 0.0, 1.0, 0.0
3, 90
*SOLID SECTION, ELSET=PLY4, MATERIAL=GE, ORIENTATION=OR4
*ORIENTATION, NAME=OR5, SYSTEM=RECTANGULAR
1.0, 0.0, 0.0, 0.0, 1.0, 0.0
3, 0
*SOLID SECTION, ELSET=PLY5, MATERIAL=HEREX, ORIENTATION=OR5
*ORIENTATION, NAME=OR6, SYSTEM=RECTANGULAR
1.0, 0.0, 0.0, 0.0, 1.0, 0.0
3, 90
*SOLID SECTION, ELSET=PLY6, MATERIAL=GE, ORIENTATION=OR6
*ORIENTATION, NAME=OR7, SYSTEM=RECTANGULAR
1.0, 0.0, 0.0, 0.0, 1.0, 0.0
3, 0
*SOLID SECTION, ELSET=PLY7, MATERIAL=GE, ORIENTATION=OR7
*ORIENTATION, NAME=OR8, SYSTEM=RECTANGULAR
1.0, 0.0, 0.0, 0.0, 1.0, 0.0
3, 90
*SOLID SECTION, ELSET=PLY8, MATERIAL=GE, ORIENTATION=OR8
*ORIENTATION, NAME=OR9, SYSTEM=RECTANGULAR
1.0, 0.0, 0.0, 0.0, 1.0, 0.0
3, 0
*SOLID SECTION, ELSET=PLY9, MATERIAL=GE, ORIENTATION=OR9
**
** SS-1 simple supports (same rule as the shell)
*BOUNDARY
NX0F, 2, 3
NXAF, 2, 3
NY0F, 1, 1
NYBF, 1, 1
NY0F, 3, 3
NYBF, 3, 3
*AMPLITUDE, NAME=FT
0., 1., 0.02, 1.
*STEP, NAME=PULSE, INC=800
*DYNAMIC
5e-05, 0.02, 5e-09, 5e-05
*DLOAD, AMPLITUDE=FT
6001, P2, 4.244297e+05
6002, P2, 1.262838e+06
6003, P2, 2.070151e+06
6004, P2, 2.826491e+06
6005, P2, 3.513232e+06
6006, P2, 4.113467e+06
6007, P2, 4.612414e+06
6008, P2, 4.997788e+06
6009, P2, 5.260100e+06
6010, P2, 5.392890e+06
6011, P2, 5.392890e+06
6012, P2, 5.260100e+06
6013, P2, 4.997788e+06
6014, P2, 4.612414e+06
6015, P2, 4.113467e+06
6016, P2, 3.513232e+06
6017, P2, 2.826491e+06
6018, P2, 2.070151e+06
6019, P2, 1.262838e+06
6020, P2, 4.244297e+05
** ... 380 like lines cut
*OUTPUT, FIELD, FREQUENCY=50
*ELEMENT OUTPUT
S
*NODE OUTPUT
U
*NODE PRINT, NSET=NCEN3D, FREQUENCY=1
U
*EL PRINT, ELSET=COLC, POSITION=CENTROIDAL, FREQUENCY=10
S
*EL PRINT, ELSET=COLX, POSITION=CENTROIDAL, FREQUENCY=10
S
*EL PRINT, ELSET=COLY, POSITION=CENTROIDAL, FREQUENCY=10
S
*END STEP
