*HEADING
Cylindrical-bending strip, community FSDT composite section
** Yu-2003 sec.-6.2 analog, case1: plies (bottom->top) yu(0.5in/15), yu(0.5in/-15)
** L/h = 4 (a = 4 in, h = 1 in), p0 = 1 psi, psi/in units
** community FSDT: Abaqus ABD + its own shear; TSHR13/23 requested
** span a = 4 m, q0 = 1 Pa, 100 S4 elements; load q0*sin(pi*x/a) per element
*NODE
1, 0.00000000, 0.00000000, 0.0
2, 0.00000000, 0.04000000, 0.0
3, 0.04000000, 0.00000000, 0.0
4, 0.04000000, 0.04000000, 0.0
5, 0.08000000, 0.00000000, 0.0
6, 0.08000000, 0.04000000, 0.0
7, 0.12000000, 0.00000000, 0.0
8, 0.12000000, 0.04000000, 0.0
9, 0.16000000, 0.00000000, 0.0
10, 0.16000000, 0.04000000, 0.0
11, 0.20000000, 0.00000000, 0.0
12, 0.20000000, 0.04000000, 0.0
13, 0.24000000, 0.00000000, 0.0
14, 0.24000000, 0.04000000, 0.0
15, 0.28000000, 0.00000000, 0.0
16, 0.28000000, 0.04000000, 0.0
17, 0.32000000, 0.00000000, 0.0
18, 0.32000000, 0.04000000, 0.0
19, 0.36000000, 0.00000000, 0.0
20, 0.36000000, 0.04000000, 0.0
** ... 182 like lines cut
*ELEMENT, TYPE=S4, ELSET=EALL
1, 1, 3, 4, 2
2, 3, 5, 6, 4
3, 5, 7, 8, 6
4, 7, 9, 10, 8
5, 9, 11, 12, 10
6, 11, 13, 14, 12
7, 13, 15, 16, 14
8, 15, 17, 18, 16
9, 17, 19, 20, 18
10, 19, 21, 22, 20
11, 21, 23, 24, 22
12, 23, 25, 26, 24
13, 25, 27, 28, 26
14, 27, 29, 30, 28
15, 29, 31, 32, 30
16, 31, 33, 34, 32
17, 33, 35, 36, 34
18, 35, 37, 38, 36
19, 37, 39, 40, 38
20, 39, 41, 42, 40
** ... 80 like lines cut
*ELSET, ELSET=EMID
50
*ELSET, ELSET=EEND
1
*NSET, NSET=NX0
1
*NSET, NSET=NXA
201
*NSET, NSET=NMID
101
*NSET, NSET=NROW0, GENERATE
1, 201, 2
*NSET, NSET=NALL, GENERATE
1, 202, 1
**
** ---- ply materials (lamina) ----
*MATERIAL, NAME=YU
*ELASTIC, TYPE=LAMINA
2.500000e+07, 1.000000e+06, 0.25, 5.000000e+05, 5.000000e+05, 2.000000e+05
** ---- community FSDT: the ply stack; Abaqus builds ABD + shear ----
*SHELL SECTION, ELSET=EALL, COMPOSITE
5.00000000e-01, 3, YU, 15
5.00000000e-01, 3, YU, -15
**
** ---- width ties: infinite-plate condition for the coupled layup ----
*EQUATION
2
2, 1, 1.0, 1, 1, -1.0
2
2, 2, 1.0, 1, 2, -1.0
2
2, 3, 1.0, 1, 3, -1.0
2
2, 4, 1.0, 1, 4, -1.0
2
2, 5, 1.0, 1, 5, -1.0
2
2, 6, 1.0, 1, 6, -1.0
2
4, 1, 1.0, 3, 1, -1.0
2
4, 2, 1.0, 3, 2, -1.0
2
4, 3, 1.0, 3, 3, -1.0
2
4, 4, 1.0, 3, 4, -1.0
** ... 1192 like lines cut
**
** ---- cylindrical bending + simple supports ----
*BOUNDARY
1, 2, 2
NX0, 3, 3
NXA, 3, 3
NX0, 1, 1
**
*STEP, NAME=SINELOAD
*STATIC
*DLOAD
1, P, 1.570732e-02
2, P, 4.710645e-02
3, P, 7.845910e-02
4, P, 1.097343e-01
5, P, 1.409012e-01
6, P, 1.719291e-01
7, P, 2.027873e-01
8, P, 2.334454e-01
9, P, 2.638730e-01
10, P, 2.940403e-01
11, P, 3.239174e-01
12, P, 3.534748e-01
13, P, 3.826834e-01
14, P, 4.115144e-01
15, P, 4.399392e-01
16, P, 4.679298e-01
17, P, 4.954587e-01
18, P, 5.224986e-01
19, P, 5.490228e-01
20, P, 5.750053e-01
** ... 80 like lines cut
*OUTPUT, FIELD
*ELEMENT OUTPUT
SF, SM
*NODE OUTPUT
U
*NODE PRINT, NSET=NMID
U
** the whole span row: the harmonic amplitudes (U, V, W, F1, F2) of the
** plate solution are least-squares fitted from these for the Eq.-65
** displacement recovery (examples/pagano_recovery/recovery_bench.py)
*NODE PRINT, NSET=NROW0
U
*EL PRINT, ELSET=EMID
SF, SM
*EL PRINT, ELSET=EEND
SF, SM
*EL PRINT, ELSET=EMID
TSHR13, TSHR23
*EL PRINT, ELSET=EEND
TSHR13, TSHR23
*END STEP
