*HEADING
Cylindrical-bending strip, community FSDT composite section
** case caseB: plies as4(62.5mm/0), as4(62.5mm/90), as4(62.5mm/90), as4(62.5mm/0)
** S = a/h = 4,  h = 0.25 m
** PREDICTED mid-span |w|: MSG closed form 1.634987e-06 m ; exact 3-D 1.583729e-06 m
**   (check the .dat U3 at node NMID against these after the job)
** COMMUNITY FSDT variant: composite section, Abaqus ABD + its own shear
** span a = 1 m, q0 = 10000 Pa, 100 S4 elements; load q0*sin(pi*x/a) per element
*NODE
1, 0.00000000, 0.00000000, 0.0
2, 0.00000000, 0.01000000, 0.0
3, 0.01000000, 0.00000000, 0.0
4, 0.01000000, 0.01000000, 0.0
5, 0.02000000, 0.00000000, 0.0
6, 0.02000000, 0.01000000, 0.0
7, 0.03000000, 0.00000000, 0.0
8, 0.03000000, 0.01000000, 0.0
9, 0.04000000, 0.00000000, 0.0
10, 0.04000000, 0.01000000, 0.0
11, 0.05000000, 0.00000000, 0.0
12, 0.05000000, 0.01000000, 0.0
13, 0.06000000, 0.00000000, 0.0
14, 0.06000000, 0.01000000, 0.0
15, 0.07000000, 0.00000000, 0.0
16, 0.07000000, 0.01000000, 0.0
17, 0.08000000, 0.00000000, 0.0
18, 0.08000000, 0.01000000, 0.0
19, 0.09000000, 0.00000000, 0.0
20, 0.09000000, 0.01000000, 0.0
** ... 182 like lines cut
*ELEMENT, TYPE=S4, ELSET=EALL
1, 1, 3, 4, 2
2, 3, 5, 6, 4
3, 5, 7, 8, 6
4, 7, 9, 10, 8
5, 9, 11, 12, 10
6, 11, 13, 14, 12
7, 13, 15, 16, 14
8, 15, 17, 18, 16
9, 17, 19, 20, 18
10, 19, 21, 22, 20
11, 21, 23, 24, 22
12, 23, 25, 26, 24
13, 25, 27, 28, 26
14, 27, 29, 30, 28
15, 29, 31, 32, 30
16, 31, 33, 34, 32
17, 33, 35, 36, 34
18, 35, 37, 38, 36
19, 37, 39, 40, 38
20, 39, 41, 42, 40
** ... 80 like lines cut
*ELSET, ELSET=EMID
50
*ELSET, ELSET=EEND
1
*NSET, NSET=NX0
1, 2
*NSET, NSET=NXA
201, 202
*NSET, NSET=NMID
101
*NSET, NSET=NALL, GENERATE
1, 202, 1
**
** ---- ply materials (lamina) ----
*MATERIAL, NAME=AS4
*ELASTIC, TYPE=LAMINA
1.810000e+11, 1.030000e+10, 0.28, 7.170000e+09, 7.170000e+09, 3.500000e+09
** ---- community FSDT: the ply stack; Abaqus builds ABD + shear ----
*SHELL SECTION, ELSET=EALL, COMPOSITE
6.25000000e-02, 3, AS4, 0
6.25000000e-02, 3, AS4, 90
6.25000000e-02, 3, AS4, 90
6.25000000e-02, 3, AS4, 0
**
** ---- cylindrical bending + simple supports ----
*BOUNDARY
NALL, 2, 2
NALL, 4, 4
NALL, 6, 6
NX0, 3, 3
NXA, 3, 3
NX0, 1, 1
**
*STEP, NAME=SINELOAD
*STATIC
*DLOAD
1, P, 1.570732e+02
2, P, 4.710645e+02
3, P, 7.845910e+02
4, P, 1.097343e+03
5, P, 1.409012e+03
6, P, 1.719291e+03
7, P, 2.027873e+03
8, P, 2.334454e+03
9, P, 2.638730e+03
10, P, 2.940403e+03
11, P, 3.239174e+03
12, P, 3.534748e+03
13, P, 3.826834e+03
14, P, 4.115144e+03
15, P, 4.399392e+03
16, P, 4.679298e+03
17, P, 4.954587e+03
18, P, 5.224986e+03
19, P, 5.490228e+03
20, P, 5.750053e+03
** ... 80 like lines cut
*OUTPUT, FIELD
*ELEMENT OUTPUT
SF, SM
*NODE OUTPUT
U
*NODE PRINT, NSET=NMID
U
*EL PRINT, ELSET=EMID
SF, SM
*EL PRINT, ELSET=EEND
SF, SM
*END STEP
