*HEADING
Cylindrical-bending SOLID benchmark strip (Yu-2003 sec.-6.2 analog)
** Yu-2003 sec.-6.2 analog, case1: plies (bottom->top) yu(0.5in/15), yu(0.5in/-15)
** L/h = 4 (a = 4 in, h = 1 in), p0 = 1 psi, psi/in units
** 3-D SOLID BENCHMARK (replaces Pagano in the 6.2 chain)
** a = 4 in, h = 1 in, q0 = p0 = 1 psi split +-p0/2 on the faces
** 160 x 1 x 20 C3D8I; width ties = infinite plate; ends u3 = 0
** extraction: COL0 centroid x = 0.0125 (divide s13/s23 by cos(p*x) = 0.99995181)
**             COLM centroid x = 2.0125 (divide s33 by sin(p*x) = 0.99995181)
*NODE
1, 0.00000000, 0.00000000, 0.00000000
2, 0.02500000, 0.00000000, 0.00000000
3, 0.05000000, 0.00000000, 0.00000000
4, 0.07500000, 0.00000000, 0.00000000
5, 0.10000000, 0.00000000, 0.00000000
6, 0.12500000, 0.00000000, 0.00000000
7, 0.15000000, 0.00000000, 0.00000000
8, 0.17500000, 0.00000000, 0.00000000
9, 0.20000000, 0.00000000, 0.00000000
10, 0.22500000, 0.00000000, 0.00000000
11, 0.25000000, 0.00000000, 0.00000000
12, 0.27500000, 0.00000000, 0.00000000
13, 0.30000000, 0.00000000, 0.00000000
14, 0.32500000, 0.00000000, 0.00000000
15, 0.35000000, 0.00000000, 0.00000000
16, 0.37500000, 0.00000000, 0.00000000
17, 0.40000000, 0.00000000, 0.00000000
18, 0.42500000, 0.00000000, 0.00000000
19, 0.45000000, 0.00000000, 0.00000000
20, 0.47500000, 0.00000000, 0.00000000
** ... 6742 like lines cut
*ELEMENT, TYPE=C3D8I
1, 1, 2, 163, 162, 323, 324, 485, 484
2, 2, 3, 164, 163, 324, 325, 486, 485
3, 3, 4, 165, 164, 325, 326, 487, 486
4, 4, 5, 166, 165, 326, 327, 488, 487
5, 5, 6, 167, 166, 327, 328, 489, 488
6, 6, 7, 168, 167, 328, 329, 490, 489
7, 7, 8, 169, 168, 329, 330, 491, 490
8, 8, 9, 170, 169, 330, 331, 492, 491
9, 9, 10, 171, 170, 331, 332, 493, 492
10, 10, 11, 172, 171, 332, 333, 494, 493
11, 11, 12, 173, 172, 333, 334, 495, 494
12, 12, 13, 174, 173, 334, 335, 496, 495
13, 13, 14, 175, 174, 335, 336, 497, 496
14, 14, 15, 176, 175, 336, 337, 498, 497
15, 15, 16, 177, 176, 337, 338, 499, 498
16, 16, 17, 178, 177, 338, 339, 500, 499
17, 17, 18, 179, 178, 339, 340, 501, 500
18, 18, 19, 180, 179, 340, 341, 502, 501
19, 19, 20, 181, 180, 341, 342, 503, 502
20, 20, 21, 182, 181, 342, 343, 504, 503
** ... 3180 like lines cut
*ELSET, ELSET=PLY1
1, 2, 3, 4, 5, 6, 7, 8, 9, 10, 11, 12
13, 14, 15, 16, 17, 18, 19, 20, 21, 22, 23, 24
25, 26, 27, 28, 29, 30, 31, 32, 33, 34, 35, 36
37, 38, 39, 40, 41, 42, 43, 44, 45, 46, 47, 48
49, 50, 51, 52, 53, 54, 55, 56, 57, 58, 59, 60
61, 62, 63, 64, 65, 66, 67, 68, 69, 70, 71, 72
73, 74, 75, 76, 77, 78, 79, 80, 81, 82, 83, 84
85, 86, 87, 88, 89, 90, 91, 92, 93, 94, 95, 96
97, 98, 99, 100, 101, 102, 103, 104, 105, 106, 107, 108
109, 110, 111, 112, 113, 114, 115, 116, 117, 118, 119, 120
121, 122, 123, 124, 125, 126, 127, 128, 129, 130, 131, 132
133, 134, 135, 136, 137, 138, 139, 140, 141, 142, 143, 144
145, 146, 147, 148, 149, 150, 151, 152, 153, 154, 155, 156
157, 158, 159, 160, 161, 162, 163, 164, 165, 166, 167, 168
169, 170, 171, 172, 173, 174, 175, 176, 177, 178, 179, 180
181, 182, 183, 184, 185, 186, 187, 188, 189, 190, 191, 192
193, 194, 195, 196, 197, 198, 199, 200, 201, 202, 203, 204
205, 206, 207, 208, 209, 210, 211, 212, 213, 214, 215, 216
217, 218, 219, 220, 221, 222, 223, 224, 225, 226, 227, 228
229, 230, 231, 232, 233, 234, 235, 236, 237, 238, 239, 240
** ... 114 like lines cut
*ELSET, ELSET=PLY2
1601, 1602, 1603, 1604, 1605, 1606, 1607, 1608, 1609, 1610, 1611, 1612
1613, 1614, 1615, 1616, 1617, 1618, 1619, 1620, 1621, 1622, 1623, 1624
1625, 1626, 1627, 1628, 1629, 1630, 1631, 1632, 1633, 1634, 1635, 1636
1637, 1638, 1639, 1640, 1641, 1642, 1643, 1644, 1645, 1646, 1647, 1648
1649, 1650, 1651, 1652, 1653, 1654, 1655, 1656, 1657, 1658, 1659, 1660
1661, 1662, 1663, 1664, 1665, 1666, 1667, 1668, 1669, 1670, 1671, 1672
1673, 1674, 1675, 1676, 1677, 1678, 1679, 1680, 1681, 1682, 1683, 1684
1685, 1686, 1687, 1688, 1689, 1690, 1691, 1692, 1693, 1694, 1695, 1696
1697, 1698, 1699, 1700, 1701, 1702, 1703, 1704, 1705, 1706, 1707, 1708
1709, 1710, 1711, 1712, 1713, 1714, 1715, 1716, 1717, 1718, 1719, 1720
1721, 1722, 1723, 1724, 1725, 1726, 1727, 1728, 1729, 1730, 1731, 1732
1733, 1734, 1735, 1736, 1737, 1738, 1739, 1740, 1741, 1742, 1743, 1744
1745, 1746, 1747, 1748, 1749, 1750, 1751, 1752, 1753, 1754, 1755, 1756
1757, 1758, 1759, 1760, 1761, 1762, 1763, 1764, 1765, 1766, 1767, 1768
1769, 1770, 1771, 1772, 1773, 1774, 1775, 1776, 1777, 1778, 1779, 1780
1781, 1782, 1783, 1784, 1785, 1786, 1787, 1788, 1789, 1790, 1791, 1792
1793, 1794, 1795, 1796, 1797, 1798, 1799, 1800, 1801, 1802, 1803, 1804
1805, 1806, 1807, 1808, 1809, 1810, 1811, 1812, 1813, 1814, 1815, 1816
1817, 1818, 1819, 1820, 1821, 1822, 1823, 1824, 1825, 1826, 1827, 1828
1829, 1830, 1831, 1832, 1833, 1834, 1835, 1836, 1837, 1838, 1839, 1840
** ... 114 like lines cut
*ELSET, ELSET=COL0
1, 161, 321, 481, 641, 801, 961, 1121, 1281, 1441, 1601, 1761
1921, 2081, 2241, 2401, 2561, 2721, 2881, 3041
*ELSET, ELSET=COLM
81, 241, 401, 561, 721, 881, 1041, 1201, 1361, 1521, 1681, 1841
2001, 2161, 2321, 2481, 2641, 2801, 2961, 3121
*NSET, NSET=NX0F
1, 323, 645, 967, 1289, 1611, 1933, 2255, 2577, 2899, 3221, 3543
3865, 4187, 4509, 4831, 5153, 5475, 5797, 6119, 6441
*NSET, NSET=NXAF
161, 483, 805, 1127, 1449, 1771, 2093, 2415, 2737, 3059, 3381, 3703
4025, 4347, 4669, 4991, 5313, 5635, 5957, 6279, 6601
*NSET, NSET=NW
81
**
*MATERIAL, NAME=YU
*ELASTIC, TYPE=ENGINEERING CONSTANTS
2.500000e+07, 1.000000e+06, 1.000000e+06, 0.25, 0.25, 0.25, 5.000000e+05, 5.000000e+05,
2.000000e+05
*ORIENTATION, NAME=OR1, SYSTEM=RECTANGULAR
1.0, 0.0, 0.0, 0.0, 1.0, 0.0
3, 15
*SOLID SECTION, ELSET=PLY1, MATERIAL=YU, ORIENTATION=OR1
*ORIENTATION, NAME=OR2, SYSTEM=RECTANGULAR
1.0, 0.0, 0.0, 0.0, 1.0, 0.0
3, -15
*SOLID SECTION, ELSET=PLY2, MATERIAL=YU, ORIENTATION=OR2
**
** ---- width ties: u(y=b) = u(y=0), all dofs -> d/dy = 0 exactly ----
** (the j=1 node is the ELIMINATED first term; BCs touch j=0 nodes only)
*EQUATION
2
162, 1, 1.0, 1, 1, -1.0
2
162, 2, 1.0, 1, 2, -1.0
2
162, 3, 1.0, 1, 3, -1.0
2
163, 1, 1.0, 2, 1, -1.0
2
163, 2, 1.0, 2, 2, -1.0
2
163, 3, 1.0, 2, 3, -1.0
2
164, 1, 1.0, 3, 1, -1.0
2
164, 2, 1.0, 3, 2, -1.0
2
164, 3, 1.0, 3, 3, -1.0
2
165, 1, 1.0, 4, 1, -1.0
** ... 20266 like lines cut
**
** ---- simple supports (harmonic-consistent) + rigid pins ----
*BOUNDARY
NX0F, 3, 3
NXAF, 3, 3
81, 1, 2
**
*STEP, NAME=SINELOAD
*STATIC
*DLOAD
1, P1, 4.908660e-03
3041, P2, -4.908660e-03
2, P1, 1.472409e-02
3042, P2, -1.472409e-02
3, P1, 2.453384e-02
3043, P2, -2.453384e-02
4, P1, 3.433413e-02
3044, P2, -3.433413e-02
5, P1, 4.412119e-02
3045, P2, -4.412119e-02
6, P1, 5.389123e-02
3046, P2, -5.389123e-02
7, P1, 6.364050e-02
3047, P2, -6.364050e-02
8, P1, 7.336524e-02
3048, P2, -7.336524e-02
9, P1, 8.306169e-02
3049, P2, -8.306169e-02
10, P1, 9.272612e-02
3050, P2, -9.272612e-02
** ... 300 like lines cut
*OUTPUT, FIELD
*ELEMENT OUTPUT
S
*NODE OUTPUT
U
*NODE PRINT, NSET=NW
U
*EL PRINT, ELSET=COL0, POSITION=CENTROIDAL
S
*EL PRINT, ELSET=COLM, POSITION=CENTROIDAL
S
*END STEP
